<?xml version="1.0" encoding="UTF-8"?>

<!-- generated on 04/09/21 15:28:30 by Eclipse SUMO netedit Version 1.8.0
<configuration xmlns:xsi="http://www.w3.org/2001/XMLSchema-instance" xsi:noNamespaceSchemaLocation="http://sumo.dlr.de/xsd/netconvertConfiguration.xsd">

    <input>
        <sumo-net-file value="C:\Users\cheng\OneDrive\Documents\WithYou\pedestrian_coordinate\sumo\my_crossing2\co_arterial.net.xml"/>
    </input>

    <output>
        <output-file value="C:\Users\cheng\OneDrive\Documents\WithYou\pedestrian_coordinate\sumo\my_crossing2\co_arterial.net.xml"/>
    </output>

    <processing>
        <geometry.min-radius.fix.railways value="false"/>
        <geometry.max-grade.fix value="false"/>
        <offset.disable-normalization value="true"/>
        <lefthand value="false"/>
    </processing>

    <junctions>
        <no-internal-links value="false"/>
        <no-turnarounds value="true"/>
        <junctions.corner-detail value="5"/>
        <junctions.limit-turn-speed value="5.5"/>
        <rectangular-lane-cut value="false"/>
    </junctions>

    <pedestrian>
        <walkingareas value="false"/>
    </pedestrian>

    <report>
        <aggregate-warnings value="5"/>
    </report>

</configuration>
-->

<net version="1.6" junctionCornerDetail="5" limitTurnSpeed="5.50" xmlns:xsi="http://www.w3.org/2001/XMLSchema-instance" xsi:noNamespaceSchemaLocation="http://sumo.dlr.de/xsd/net_file.xsd">

    <location netOffset="0.00,0.00" convBoundary="-400.00,0.00,600.00,200.00" origBoundary="-10000000000.00,-10000000000.00,10000000000.00,10000000000.00" projParameter="!"/>

    <edge id=":T01_0" function="internal">
        <lane id=":T01_0_0" index="0" disallow="pedestrian tram rail_urban rail rail_electric rail_fast ship" speed="6.51" length="9.03" shape="-304.80,110.40 -305.15,107.95 -306.20,106.20 -307.95,105.15 -310.40,104.80"/>
    </edge>
    <edge id=":T01_1" function="internal">
        <lane id=":T01_1_0" index="0" disallow="pedestrian tram rail_urban rail rail_electric rail_fast ship" speed="13.89" length="20.80" shape="-304.80,110.40 -304.80,89.60"/>
        <lane id=":T01_1_1" index="1" disallow="pedestrian tram rail_urban rail rail_electric rail_fast ship" speed="13.89" length="20.80" shape="-301.60,110.40 -301.60,89.60"/>
    </edge>
    <edge id=":T01_3" function="internal">
        <lane id=":T01_3_0" index="0" disallow="pedestrian tram rail_urban rail rail_electric rail_fast ship" speed="9.26" length="6.96" shape="-301.60,110.40 -300.85,105.15 -300.00,103.73"/>
    </edge>
    <edge id=":T01_16" function="internal">
        <lane id=":T01_16_0" index="0" disallow="pedestrian tram rail_urban rail rail_electric rail_fast ship" speed="9.26" length="12.40" shape="-300.00,103.73 -298.60,101.40 -294.85,99.15 -289.60,98.40"/>
    </edge>
    <edge id=":T01_4" function="internal">
        <lane id=":T01_4_0" index="0" disallow="pedestrian tram rail_urban rail rail_electric rail_fast ship" speed="6.51" length="9.03" shape="-289.60,104.80 -292.05,105.15 -293.80,106.20 -294.85,107.95 -295.20,110.40"/>
    </edge>
    <edge id=":T01_5" function="internal">
        <lane id=":T01_5_0" index="0" disallow="pedestrian tram rail_urban rail rail_electric rail_fast ship" speed="13.89" length="20.80" shape="-289.60,104.80 -310.40,104.80"/>
        <lane id=":T01_5_1" index="1" disallow="pedestrian tram rail_urban rail rail_electric rail_fast ship" speed="13.89" length="20.80" shape="-289.60,101.60 -310.40,101.60"/>
    </edge>
    <edge id=":T01_7" function="internal">
        <lane id=":T01_7_0" index="0" disallow="pedestrian tram rail_urban rail rail_electric rail_fast ship" speed="9.26" length="6.96" shape="-289.60,101.60 -294.85,100.85 -296.27,100.00"/>
    </edge>
    <edge id=":T01_17" function="internal">
        <lane id=":T01_17_0" index="0" disallow="pedestrian tram rail_urban rail rail_electric rail_fast ship" speed="9.26" length="12.40" shape="-296.27,100.00 -298.60,98.60 -300.85,94.85 -301.60,89.60"/>
    </edge>
    <edge id=":T01_8" function="internal">
        <lane id=":T01_8_0" index="0" disallow="pedestrian tram rail_urban rail rail_electric rail_fast ship" speed="6.51" length="9.03" shape="-295.20,89.60 -294.85,92.05 -293.80,93.80 -292.05,94.85 -289.60,95.20"/>
    </edge>
    <edge id=":T01_9" function="internal">
        <lane id=":T01_9_0" index="0" disallow="pedestrian tram rail_urban rail rail_electric rail_fast ship" speed="13.89" length="20.80" shape="-295.20,89.60 -295.20,110.40"/>
        <lane id=":T01_9_1" index="1" disallow="pedestrian tram rail_urban rail rail_electric rail_fast ship" speed="13.89" length="20.80" shape="-298.40,89.60 -298.40,110.40"/>
    </edge>
    <edge id=":T01_11" function="internal">
        <lane id=":T01_11_0" index="0" disallow="pedestrian tram rail_urban rail rail_electric rail_fast ship" speed="9.26" length="6.96" shape="-298.40,89.60 -299.15,94.85 -300.00,96.27"/>
    </edge>
    <edge id=":T01_18" function="internal">
        <lane id=":T01_18_0" index="0" disallow="pedestrian tram rail_urban rail rail_electric rail_fast ship" speed="9.26" length="12.40" shape="-300.00,96.27 -301.40,98.60 -305.15,100.85 -310.40,101.60"/>
    </edge>
    <edge id=":T01_12" function="internal">
        <lane id=":T01_12_0" index="0" disallow="pedestrian tram rail_urban rail rail_electric rail_fast ship" speed="6.51" length="9.03" shape="-310.40,95.20 -307.95,94.85 -306.20,93.80 -305.15,92.05 -304.80,89.60"/>
    </edge>
    <edge id=":T01_13" function="internal">
        <lane id=":T01_13_0" index="0" disallow="pedestrian tram rail_urban rail rail_electric rail_fast ship" speed="13.89" length="20.80" shape="-310.40,95.20 -289.60,95.20"/>
        <lane id=":T01_13_1" index="1" disallow="pedestrian tram rail_urban rail rail_electric rail_fast ship" speed="13.89" length="20.80" shape="-310.40,98.40 -289.60,98.40"/>
    </edge>
    <edge id=":T01_15" function="internal">
        <lane id=":T01_15_0" index="0" disallow="pedestrian tram rail_urban rail rail_electric rail_fast ship" speed="9.26" length="6.95" shape="-310.40,98.40 -305.15,99.15 -303.73,100.00"/>
    </edge>
    <edge id=":T01_19" function="internal">
        <lane id=":T01_19_0" index="0" disallow="pedestrian tram rail_urban rail rail_electric rail_fast ship" speed="9.26" length="12.40" shape="-303.73,100.00 -301.40,101.40 -299.15,105.15 -298.40,110.40"/>
    </edge>
    <edge id=":T02_0" function="internal">
        <lane id=":T02_0_0" index="0" disallow="pedestrian tram rail_urban rail rail_electric rail_fast ship" speed="13.89" length="6.01" shape="103.50,104.77 97.49,104.77"/>
        <lane id=":T02_0_1" index="1" disallow="pedestrian tram rail_urban rail rail_electric rail_fast ship" speed="13.89" length="6.01" shape="103.50,101.57 97.49,101.57"/>
    </edge>
    <edge id=":T02_2" function="internal">
        <lane id=":T02_2_0" index="0" disallow="pedestrian tram rail_urban rail rail_electric rail_fast ship" speed="13.89" length="6.01" shape="97.49,95.17 103.50,95.17"/>
        <lane id=":T02_2_1" index="1" disallow="pedestrian tram rail_urban rail rail_electric rail_fast ship" speed="13.89" length="6.01" shape="97.49,98.37 103.50,98.37"/>
    </edge>
    <edge id=":T02_c0" function="crossing" crossingEdges="gneE18 -gneE18">
        <lane id=":T02_c0_0" index="0" allow="pedestrian" speed="1.00" length="12.80" width="6.00" shape="100.50,93.57 100.50,106.37"/>
    </edge>
    <edge id=":T02_w0" function="walkingarea">
        <lane id=":T02_w0_0" index="0" allow="pedestrian" speed="1.00" length="1.50" width="6.00" shape="99.00,107.87 102.00,107.87 103.50,106.37 97.50,106.37"/>
    </edge>
    <edge id=":T02_w1" function="walkingarea">
        <lane id=":T02_w1_0" index="0" allow="pedestrian" speed="1.00" length="1.50" width="6.00" shape="97.50,93.57 103.50,93.57 101.99,92.07 98.99,92.07"/>
    </edge>
    <edge id=":T03_0" function="internal">
        <lane id=":T03_0_0" index="0" disallow="pedestrian tram rail_urban rail rail_electric rail_fast ship" speed="6.51" length="9.03" shape="495.20,110.40 494.85,107.95 493.80,106.20 492.05,105.15 489.60,104.80"/>
    </edge>
    <edge id=":T03_1" function="internal">
        <lane id=":T03_1_0" index="0" disallow="pedestrian tram rail_urban rail rail_electric rail_fast ship" speed="13.89" length="20.80" shape="495.20,110.40 495.20,89.60"/>
        <lane id=":T03_1_1" index="1" disallow="pedestrian tram rail_urban rail rail_electric rail_fast ship" speed="13.89" length="20.80" shape="498.40,110.40 498.40,89.60"/>
    </edge>
    <edge id=":T03_3" function="internal">
        <lane id=":T03_3_0" index="0" disallow="pedestrian tram rail_urban rail rail_electric rail_fast ship" speed="9.26" length="6.96" shape="498.40,110.40 499.15,105.15 500.00,103.73"/>
    </edge>
    <edge id=":T03_16" function="internal">
        <lane id=":T03_16_0" index="0" disallow="pedestrian tram rail_urban rail rail_electric rail_fast ship" speed="9.26" length="12.40" shape="500.00,103.73 501.40,101.40 505.15,99.15 510.40,98.40"/>
    </edge>
    <edge id=":T03_4" function="internal">
        <lane id=":T03_4_0" index="0" disallow="pedestrian tram rail_urban rail rail_electric rail_fast ship" speed="6.51" length="9.03" shape="510.40,104.80 507.95,105.15 506.20,106.20 505.15,107.95 504.80,110.40"/>
    </edge>
    <edge id=":T03_5" function="internal">
        <lane id=":T03_5_0" index="0" disallow="pedestrian tram rail_urban rail rail_electric rail_fast ship" speed="13.89" length="20.80" shape="510.40,104.80 489.60,104.80"/>
        <lane id=":T03_5_1" index="1" disallow="pedestrian tram rail_urban rail rail_electric rail_fast ship" speed="13.89" length="20.80" shape="510.40,101.60 489.60,101.60"/>
    </edge>
    <edge id=":T03_7" function="internal">
        <lane id=":T03_7_0" index="0" disallow="pedestrian tram rail_urban rail rail_electric rail_fast ship" speed="9.26" length="6.96" shape="510.40,101.60 505.15,100.85 503.73,100.00"/>
    </edge>
    <edge id=":T03_17" function="internal">
        <lane id=":T03_17_0" index="0" disallow="pedestrian tram rail_urban rail rail_electric rail_fast ship" speed="9.26" length="12.40" shape="503.73,100.00 501.40,98.60 499.15,94.85 498.40,89.60"/>
    </edge>
    <edge id=":T03_8" function="internal">
        <lane id=":T03_8_0" index="0" disallow="pedestrian tram rail_urban rail rail_electric rail_fast ship" speed="6.51" length="9.03" shape="504.80,89.60 505.15,92.05 506.20,93.80 507.95,94.85 510.40,95.20"/>
    </edge>
    <edge id=":T03_9" function="internal">
        <lane id=":T03_9_0" index="0" disallow="pedestrian tram rail_urban rail rail_electric rail_fast ship" speed="13.89" length="20.80" shape="504.80,89.60 504.80,110.40"/>
        <lane id=":T03_9_1" index="1" disallow="pedestrian tram rail_urban rail rail_electric rail_fast ship" speed="13.89" length="20.80" shape="501.60,89.60 501.60,110.40"/>
    </edge>
    <edge id=":T03_11" function="internal">
        <lane id=":T03_11_0" index="0" disallow="pedestrian tram rail_urban rail rail_electric rail_fast ship" speed="9.26" length="6.96" shape="501.60,89.60 500.85,94.85 500.00,96.27"/>
    </edge>
    <edge id=":T03_18" function="internal">
        <lane id=":T03_18_0" index="0" disallow="pedestrian tram rail_urban rail rail_electric rail_fast ship" speed="9.26" length="12.40" shape="500.00,96.27 498.60,98.60 494.85,100.85 489.60,101.60"/>
    </edge>
    <edge id=":T03_12" function="internal">
        <lane id=":T03_12_0" index="0" disallow="pedestrian tram rail_urban rail rail_electric rail_fast ship" speed="6.51" length="9.03" shape="489.60,95.20 492.05,94.85 493.80,93.80 494.85,92.05 495.20,89.60"/>
    </edge>
    <edge id=":T03_13" function="internal">
        <lane id=":T03_13_0" index="0" disallow="pedestrian tram rail_urban rail rail_electric rail_fast ship" speed="13.89" length="20.80" shape="489.60,95.20 510.40,95.20"/>
        <lane id=":T03_13_1" index="1" disallow="pedestrian tram rail_urban rail rail_electric rail_fast ship" speed="13.89" length="20.80" shape="489.60,98.40 510.40,98.40"/>
    </edge>
    <edge id=":T03_15" function="internal">
        <lane id=":T03_15_0" index="0" disallow="pedestrian tram rail_urban rail rail_electric rail_fast ship" speed="9.26" length="6.96" shape="489.60,98.40 494.85,99.15 496.27,100.00"/>
    </edge>
    <edge id=":T03_19" function="internal">
        <lane id=":T03_19_0" index="0" disallow="pedestrian tram rail_urban rail rail_electric rail_fast ship" speed="9.26" length="12.40" shape="496.27,100.00 498.60,101.40 500.85,105.15 501.60,110.40"/>
    </edge>

    <edge id="-gneE14" from="T01" to="W01" priority="-1">
        <lane id="-gneE14_0" index="0" disallow="pedestrian tram rail_urban rail rail_electric rail_fast ship" speed="13.89" length="89.60" shape="-310.40,104.80 -400.00,104.80"/>
        <lane id="-gneE14_1" index="1" disallow="pedestrian tram rail_urban rail rail_electric rail_fast ship" speed="13.89" length="89.60" shape="-310.40,101.60 -400.00,101.60"/>
    </edge>
    <edge id="-gneE15" from="T01" to="N01" priority="-1" length="89.60">
        <lane id="-gneE15_0" index="0" disallow="pedestrian tram rail_urban rail rail_electric rail_fast ship" speed="13.89" length="89.60" shape="-295.20,110.40 -295.20,200.00"/>
        <lane id="-gneE15_1" index="1" disallow="pedestrian tram rail_urban rail rail_electric rail_fast ship" speed="13.89" length="89.60" shape="-298.40,110.40 -298.40,200.00"/>
    </edge>
    <edge id="-gneE16" from="T01" to="S01" priority="-1">
        <lane id="-gneE16_0" index="0" disallow="pedestrian tram rail_urban rail rail_electric rail_fast ship" speed="13.89" length="89.60" shape="-304.80,89.60 -304.80,0.00"/>
        <lane id="-gneE16_1" index="1" disallow="pedestrian tram rail_urban rail rail_electric rail_fast ship" speed="13.89" length="89.60" shape="-301.60,89.60 -301.60,0.00"/>
    </edge>
    <edge id="-gneE17" from="T01" to="T02" priority="-1">
        <lane id="-gneE17_0" index="0" disallow="pedestrian tram rail_urban rail rail_electric rail_fast ship" speed="13.89" length="387.09" shape="-289.60,95.20 97.49,95.17"/>
        <lane id="-gneE17_1" index="1" disallow="pedestrian tram rail_urban rail rail_electric rail_fast ship" speed="13.89" length="387.09" shape="-289.60,98.40 97.49,98.37"/>
    </edge>
    <edge id="-gneE18" from="T03" to="T02" priority="-1">
        <lane id="-gneE18_0" index="0" disallow="pedestrian tram rail_urban rail rail_electric rail_fast ship" speed="13.89" length="386.10" shape="489.60,104.80 103.50,104.77"/>
        <lane id="-gneE18_1" index="1" disallow="pedestrian tram rail_urban rail rail_electric rail_fast ship" speed="13.89" length="386.10" shape="489.60,101.60 103.50,101.57"/>
    </edge>
    <edge id="-gneE19" from="T03" to="E03" priority="-1">
        <lane id="-gneE19_0" index="0" disallow="pedestrian tram rail_urban rail rail_electric rail_fast ship" speed="13.89" length="89.60" shape="510.40,95.20 600.00,95.20"/>
        <lane id="-gneE19_1" index="1" disallow="pedestrian tram rail_urban rail rail_electric rail_fast ship" speed="13.89" length="89.60" shape="510.40,98.40 600.00,98.40"/>
    </edge>
    <edge id="-gneE20" from="T03" to="N03" priority="-1">
        <lane id="-gneE20_0" index="0" disallow="pedestrian tram rail_urban rail rail_electric rail_fast ship" speed="13.89" length="89.60" shape="504.80,110.40 504.80,200.00"/>
        <lane id="-gneE20_1" index="1" disallow="pedestrian tram rail_urban rail rail_electric rail_fast ship" speed="13.89" length="89.60" shape="501.60,110.40 501.60,200.00"/>
    </edge>
    <edge id="-gneE21" from="T03" to="S03" priority="-1">
        <lane id="-gneE21_0" index="0" disallow="pedestrian tram rail_urban rail rail_electric rail_fast ship" speed="13.89" length="89.60" shape="495.20,89.60 495.20,0.00"/>
        <lane id="-gneE21_1" index="1" disallow="pedestrian tram rail_urban rail rail_electric rail_fast ship" speed="13.89" length="89.60" shape="498.40,89.60 498.40,0.00"/>
    </edge>
    <edge id="gneE14" from="W01" to="T01" priority="-1">
        <lane id="gneE14_0" index="0" disallow="pedestrian tram rail_urban rail rail_electric rail_fast ship" speed="13.89" length="89.60" shape="-400.00,95.20 -310.40,95.20"/>
        <lane id="gneE14_1" index="1" disallow="pedestrian tram rail_urban rail rail_electric rail_fast ship" speed="13.89" length="89.60" shape="-400.00,98.40 -310.40,98.40"/>
    </edge>
    <edge id="gneE15" from="N01" to="T01" priority="-1" length="89.60">
        <lane id="gneE15_0" index="0" disallow="pedestrian tram rail_urban rail rail_electric rail_fast ship" speed="13.89" length="89.60" shape="-304.80,200.00 -304.80,110.40"/>
        <lane id="gneE15_1" index="1" disallow="pedestrian tram rail_urban rail rail_electric rail_fast ship" speed="13.89" length="89.60" shape="-301.60,200.00 -301.60,110.40"/>
    </edge>
    <edge id="gneE16" from="S01" to="T01" priority="-1">
        <lane id="gneE16_0" index="0" disallow="pedestrian tram rail_urban rail rail_electric rail_fast ship" speed="13.89" length="89.60" shape="-295.20,0.00 -295.20,89.60"/>
        <lane id="gneE16_1" index="1" disallow="pedestrian tram rail_urban rail rail_electric rail_fast ship" speed="13.89" length="89.60" shape="-298.40,0.00 -298.40,89.60"/>
    </edge>
    <edge id="gneE17" from="T02" to="T01" priority="-1">
        <lane id="gneE17_0" index="0" disallow="pedestrian tram rail_urban rail rail_electric rail_fast ship" speed="13.89" length="387.09" shape="97.49,104.77 -289.60,104.80"/>
        <lane id="gneE17_1" index="1" disallow="pedestrian tram rail_urban rail rail_electric rail_fast ship" speed="13.89" length="387.09" shape="97.49,101.57 -289.60,101.60"/>
    </edge>
    <edge id="gneE18" from="T02" to="T03" priority="-1">
        <lane id="gneE18_0" index="0" disallow="pedestrian tram rail_urban rail rail_electric rail_fast ship" speed="13.89" length="386.10" shape="103.50,95.17 489.60,95.20"/>
        <lane id="gneE18_1" index="1" disallow="pedestrian tram rail_urban rail rail_electric rail_fast ship" speed="13.89" length="386.10" shape="103.50,98.37 489.60,98.40"/>
    </edge>
    <edge id="gneE19" from="E03" to="T03" priority="-1">
        <lane id="gneE19_0" index="0" disallow="pedestrian tram rail_urban rail rail_electric rail_fast ship" speed="13.89" length="89.60" shape="600.00,104.80 510.40,104.80"/>
        <lane id="gneE19_1" index="1" disallow="pedestrian tram rail_urban rail rail_electric rail_fast ship" speed="13.89" length="89.60" shape="600.00,101.60 510.40,101.60"/>
    </edge>
    <edge id="gneE20" from="N03" to="T03" priority="-1">
        <lane id="gneE20_0" index="0" disallow="pedestrian tram rail_urban rail rail_electric rail_fast ship" speed="13.89" length="89.60" shape="495.20,200.00 495.20,110.40"/>
        <lane id="gneE20_1" index="1" disallow="pedestrian tram rail_urban rail rail_electric rail_fast ship" speed="13.89" length="89.60" shape="498.40,200.00 498.40,110.40"/>
    </edge>
    <edge id="gneE21" from="S03" to="T03" priority="-1">
        <lane id="gneE21_0" index="0" disallow="pedestrian tram rail_urban rail rail_electric rail_fast ship" speed="13.89" length="89.60" shape="504.80,0.00 504.80,89.60"/>
        <lane id="gneE21_1" index="1" disallow="pedestrian tram rail_urban rail rail_electric rail_fast ship" speed="13.89" length="89.60" shape="501.60,0.00 501.60,89.60"/>
    </edge>
    <edge id="gneE47" from="N02" to="T02" priority="1" spreadType="center">
        <lane id="gneE47_0" index="0" allow="pedestrian" speed="5.00" length="16.74" width="3.00" shape="100.50,124.61 100.50,107.87"/>
    </edge>
    <edge id="gneE48" from="T02" to="S02" priority="1" spreadType="center">
        <lane id="gneE48_0" index="0" allow="pedestrian" speed="5.00" length="13.17" width="3.00" shape="100.49,92.07 100.47,78.90"/>
    </edge>

    <tlLogic id="T01" type="static" programID="0" offset="0">
        <phase duration="42" state="GGGgrrrrGGGgrrrr"/>
        <phase duration="3"  state="yyyyrrrryyyyrrrr"/>
        <phase duration="42" state="rrrrGGGgrrrrGGGg"/>
        <phase duration="3"  state="rrrryyyyrrrryyyy"/>
    </tlLogic>
    <tlLogic id="T02" type="static" programID="0" offset="0">
        <phase duration="77" state="GGGGr"/>
        <phase duration="3"  state="yyyyr"/>
        <phase duration="5"  state="rrrrG"/>
        <phase duration="5"  state="rrrrr"/>
    </tlLogic>
    <tlLogic id="T03" type="static" programID="0" offset="0">
        <phase duration="42" state="GGGgrrrrGGGgrrrr"/>
        <phase duration="3"  state="yyyyrrrryyyyrrrr"/>
        <phase duration="42" state="rrrrGGGgrrrrGGGg"/>
        <phase duration="3"  state="rrrryyyyrrrryyyy"/>
    </tlLogic>

    <junction id="E03" type="dead_end" x="600.00" y="100.00" incLanes="-gneE19_0 -gneE19_1" intLanes="" shape="600.00,100.00 600.00,93.60 600.00,100.00"/>
    <junction id="N01" type="dead_end" x="-300.00" y="200.00" incLanes="-gneE15_0 -gneE15_1" intLanes="" shape="-300.00,200.00 -293.60,200.00 -300.00,200.00"/>
    <junction id="N02" type="dead_end" x="100.50" y="124.61" incLanes="" intLanes="" shape="102.00,124.61 99.00,124.61"/>
    <junction id="N03" type="dead_end" x="500.00" y="200.00" incLanes="-gneE20_0 -gneE20_1" intLanes="" shape="500.00,200.00 506.40,200.00 500.00,200.00"/>
    <junction id="S01" type="dead_end" x="-300.00" y="0.00" incLanes="-gneE16_0 -gneE16_1" intLanes="" shape="-300.00,0.00 -306.40,0.00 -300.00,0.00"/>
    <junction id="S02" type="dead_end" x="100.47" y="78.90" incLanes="gneE48_0" intLanes="" shape="98.97,78.90 101.97,78.90"/>
    <junction id="S03" type="dead_end" x="500.00" y="0.00" incLanes="-gneE21_0 -gneE21_1" intLanes="" shape="500.00,0.00 493.60,0.00 500.00,0.00"/>
    <junction id="T01" type="traffic_light" x="-300.00" y="100.00" incLanes="gneE15_0 gneE15_1 gneE17_0 gneE17_1 gneE16_0 gneE16_1 gneE14_0 gneE14_1" intLanes=":T01_0_0 :T01_1_0 :T01_1_1 :T01_16_0 :T01_4_0 :T01_5_0 :T01_5_1 :T01_17_0 :T01_8_0 :T01_9_0 :T01_9_1 :T01_18_0 :T01_12_0 :T01_13_0 :T01_13_1 :T01_19_0" shape="-306.40,110.40 -293.60,110.40 -293.16,108.18 -292.60,107.40 -291.82,106.84 -290.82,106.51 -289.60,106.40 -289.60,93.60 -291.82,93.15 -292.60,92.60 -293.16,91.82 -293.49,90.82 -293.60,89.60 -306.40,89.60 -306.84,91.82 -307.40,92.60 -308.18,93.16 -309.18,93.49 -310.40,93.60 -310.40,106.40 -308.18,106.84 -307.40,107.40 -306.84,108.18 -306.51,109.18">
        <request index="0"  response="0000000000000000" foes="0000000001100000" cont="0"/>
        <request index="1"  response="1000000010000000" foes="1111100011100000" cont="0"/>
        <request index="2"  response="1000000010000000" foes="1111100011100000" cont="0"/>
        <request index="3"  response="1000011010000000" foes="1110011011100000" cont="1"/>
        <request index="4"  response="0000011000000000" foes="0000011000000000" cont="0"/>
        <request index="5"  response="0000111000001111" foes="1000111000001111" cont="0"/>
        <request index="6"  response="0000111000001111" foes="1000111000001111" cont="0"/>
        <request index="7"  response="0110111000001110" foes="0110111000001110" cont="1"/>
        <request index="8"  response="0000000000000000" foes="0110000000000000" cont="0"/>
        <request index="9"  response="1000000010000000" foes="1110000011111000" cont="0"/>
        <request index="10" response="1000000010000000" foes="1110000011111000" cont="0"/>
        <request index="11" response="1000000010000110" foes="1110000011100110" cont="1"/>
        <request index="12" response="0000000000000110" foes="0000000000000110" cont="0"/>
        <request index="13" response="0000111100001110" foes="0000111110001110" cont="0"/>
        <request index="14" response="0000111100001110" foes="0000111110001110" cont="0"/>
        <request index="15" response="0000111001101110" foes="0000111001101110" cont="1"/>
    </junction>
    <junction id="T02" type="traffic_light" x="100.50" y="99.97" incLanes="gneE47_0 -gneE18_0 -gneE18_1 -gneE17_0 -gneE17_1 :T02_w1_0" intLanes=":T02_0_0 :T02_0_1 :T02_2_0 :T02_2_1 :T02_c0_0" shape="99.00,107.87 102.00,107.87 102.17,107.04 102.37,106.75 102.67,106.54 103.04,106.41 103.50,106.37 103.50,93.57 102.66,93.40 102.37,93.19 102.16,92.90 102.03,92.53 101.99,92.07 98.99,92.07 98.82,92.90 98.62,93.20 98.32,93.40 97.95,93.53 97.49,93.57 97.49,106.37 98.33,106.54 98.62,106.75 98.83,107.04 98.96,107.41">
        <request index="0" response="10000" foes="10000" cont="0"/>
        <request index="1" response="10000" foes="10000" cont="0"/>
        <request index="2" response="10000" foes="10000" cont="0"/>
        <request index="3" response="10000" foes="10000" cont="0"/>
        <request index="4" response="00000" foes="01111" cont="0"/>
    </junction>
    <junction id="T03" type="traffic_light" x="500.00" y="100.00" incLanes="gneE20_0 gneE20_1 gneE19_0 gneE19_1 gneE21_0 gneE21_1 gneE18_0 gneE18_1" intLanes=":T03_0_0 :T03_1_0 :T03_1_1 :T03_16_0 :T03_4_0 :T03_5_0 :T03_5_1 :T03_17_0 :T03_8_0 :T03_9_0 :T03_9_1 :T03_18_0 :T03_12_0 :T03_13_0 :T03_13_1 :T03_19_0" shape="493.60,110.40 506.40,110.40 506.84,108.18 507.40,107.40 508.18,106.84 509.18,106.51 510.40,106.40 510.40,93.60 508.18,93.16 507.40,92.60 506.84,91.82 506.51,90.82 506.40,89.60 493.60,89.60 493.16,91.82 492.60,92.60 491.82,93.15 490.82,93.49 489.60,93.60 489.60,106.40 491.82,106.84 492.60,107.40 493.16,108.18 493.49,109.18">
        <request index="0"  response="0000000000000000" foes="0000000001100000" cont="0"/>
        <request index="1"  response="1000000010000000" foes="1111100011100000" cont="0"/>
        <request index="2"  response="1000000010000000" foes="1111100011100000" cont="0"/>
        <request index="3"  response="1000011010000000" foes="1110011011100000" cont="1"/>
        <request index="4"  response="0000011000000000" foes="0000011000000000" cont="0"/>
        <request index="5"  response="0000111000001111" foes="1000111000001111" cont="0"/>
        <request index="6"  response="0000111000001111" foes="1000111000001111" cont="0"/>
        <request index="7"  response="0110111000001110" foes="0110111000001110" cont="1"/>
        <request index="8"  response="0000000000000000" foes="0110000000000000" cont="0"/>
        <request index="9"  response="1000000010000000" foes="1110000011111000" cont="0"/>
        <request index="10" response="1000000010000000" foes="1110000011111000" cont="0"/>
        <request index="11" response="1000000010000110" foes="1110000011100110" cont="1"/>
        <request index="12" response="0000000000000110" foes="0000000000000110" cont="0"/>
        <request index="13" response="0000111100001110" foes="0000111110001110" cont="0"/>
        <request index="14" response="0000111100001110" foes="0000111110001110" cont="0"/>
        <request index="15" response="0000111001101110" foes="0000111001101110" cont="1"/>
    </junction>
    <junction id="W01" type="dead_end" x="-400.00" y="100.00" incLanes="-gneE14_0 -gneE14_1" intLanes="" shape="-400.00,100.00 -400.00,106.40 -400.00,100.00"/>

    <junction id=":T01_16_0" type="internal" x="-300.00" y="103.73" incLanes=":T01_3_0 gneE16_0 gneE16_1" intLanes=":T01_5_0 :T01_5_1 :T01_7_0 :T01_8_0 :T01_9_0 :T01_9_1 :T01_13_0 :T01_13_1 :T01_15_0"/>
    <junction id=":T01_17_0" type="internal" x="-296.27" y="100.00" incLanes=":T01_7_0 gneE14_0 gneE14_1" intLanes=":T01_1_0 :T01_1_1 :T01_3_0 :T01_9_0 :T01_9_1 :T01_11_0 :T01_12_0 :T01_13_0 :T01_13_1"/>
    <junction id=":T01_18_0" type="internal" x="-300.00" y="96.27" incLanes=":T01_11_0 gneE15_0 gneE15_1" intLanes=":T01_0_0 :T01_1_0 :T01_1_1 :T01_5_0 :T01_5_1 :T01_7_0 :T01_13_0 :T01_13_1 :T01_15_0"/>
    <junction id=":T01_19_0" type="internal" x="-303.73" y="100.00" incLanes=":T01_15_0 gneE17_0 gneE17_1" intLanes=":T01_1_0 :T01_1_1 :T01_3_0 :T01_4_0 :T01_5_0 :T01_5_1 :T01_9_0 :T01_9_1 :T01_11_0"/>
    <junction id=":T03_16_0" type="internal" x="500.00" y="103.73" incLanes=":T03_3_0 gneE21_0 gneE21_1" intLanes=":T03_5_0 :T03_5_1 :T03_7_0 :T03_8_0 :T03_9_0 :T03_9_1 :T03_13_0 :T03_13_1 :T03_15_0"/>
    <junction id=":T03_17_0" type="internal" x="503.73" y="100.00" incLanes=":T03_7_0 gneE18_0 gneE18_1" intLanes=":T03_1_0 :T03_1_1 :T03_3_0 :T03_9_0 :T03_9_1 :T03_11_0 :T03_12_0 :T03_13_0 :T03_13_1"/>
    <junction id=":T03_18_0" type="internal" x="500.00" y="96.27" incLanes=":T03_11_0 gneE20_0 gneE20_1" intLanes=":T03_0_0 :T03_1_0 :T03_1_1 :T03_5_0 :T03_5_1 :T03_7_0 :T03_13_0 :T03_13_1 :T03_15_0"/>
    <junction id=":T03_19_0" type="internal" x="496.27" y="100.00" incLanes=":T03_15_0 gneE19_0 gneE19_1" intLanes=":T03_1_0 :T03_1_1 :T03_3_0 :T03_4_0 :T03_5_0 :T03_5_1 :T03_9_0 :T03_9_1 :T03_11_0"/>

    <connection from="-gneE17" to="gneE18" fromLane="0" toLane="0" via=":T02_2_0" tl="T02" linkIndex="2" dir="s" state="o"/>
    <connection from="-gneE17" to="gneE18" fromLane="1" toLane="1" via=":T02_2_1" tl="T02" linkIndex="3" dir="s" state="o"/>
    <connection from="-gneE18" to="gneE17" fromLane="0" toLane="0" via=":T02_0_0" tl="T02" linkIndex="0" dir="s" state="o"/>
    <connection from="-gneE18" to="gneE17" fromLane="1" toLane="1" via=":T02_0_1" tl="T02" linkIndex="1" dir="s" state="o"/>
    <connection from="gneE14" to="-gneE16" fromLane="0" toLane="0" via=":T01_12_0" tl="T01" linkIndex="12" dir="r" state="o"/>
    <connection from="gneE14" to="-gneE17" fromLane="0" toLane="0" via=":T01_13_0" tl="T01" linkIndex="13" dir="s" state="o"/>
    <connection from="gneE14" to="-gneE17" fromLane="1" toLane="1" via=":T01_13_1" tl="T01" linkIndex="14" dir="s" state="o"/>
    <connection from="gneE14" to="-gneE15" fromLane="1" toLane="1" via=":T01_15_0" tl="T01" linkIndex="15" dir="l" state="o"/>
    <connection from="gneE15" to="-gneE14" fromLane="0" toLane="0" via=":T01_0_0" tl="T01" linkIndex="0" dir="r" state="O"/>
    <connection from="gneE15" to="-gneE16" fromLane="0" toLane="0" via=":T01_1_0" tl="T01" linkIndex="1" dir="s" state="O"/>