<tlLogics>
 <!-- synchoronized -->
    <tlLogic id="T01" type="static" programID="1" offset="0">
        <phase duration="31" state="gGGggrrrgGGggrrr"/>          <!-- north south T L -->
        <phase duration="4"  state="gyyygrrrgyyygrrr"/>   
        <phase duration="41" state="grrrgGGggrrrgGGg"/>          <!-- west east T L -->
        <phase duration="4"  state="grrrgyyygrrrgyyy"/>
        <!-- <phase duration="2" state="rrrrrrrrrrrrrrrr"/> -->
    </tlLogic>
   
    <tlLogic id="T02" type="static" programID="custom" offset="0">
        <phase duration="100000" state="GGGGr"/> <!-- do not switch vehicle phase automatically -->
        <phase duration="5" state="yyyyr"/>
        <phase duration="15" state="rrrrG"/>
        <phase duration="3" state="rrrrr"/> <!-- give pedestrians time to clear the intersection -->
    </tlLogic>
   
    <tlLogic id="T03" type="static" programID="2" offset="28">
        <phase duration="31" state="gGGggrrrgGGggrrr"/>          <!-- north south T L -->
        <phase duration="4"  state="gyyygrrryyyygrrr"/>   
        <phase duration="41" state="grrrgGGggrrrgGGg"/>          <!-- west east T L -->
        <phase duration="4"  state="grrrgyyygrrrgyyy"/>
        <!-- <phase duration="2" state="rrrrrrrrrrrrrrrr"/> -->
    </tlLogic>

</tlLogics>